Version 4
SHEET 1 880 680
WIRE 368 -48 64 -48
WIRE 368 0 368 -48
WIRE -32 32 -48 32
WIRE 64 32 64 -48
WIRE 64 32 48 32
WIRE -48 80 -48 32
WIRE 64 128 64 32
WIRE 160 128 64 128
WIRE 368 160 368 80
WIRE 368 160 320 160
WIRE 400 160 368 160
WIRE 112 192 80 192
WIRE 160 192 112 192
WIRE 112 224 112 192
FLAG -48 80 0
FLAG 192 0 0
FLAG 192 320 0
FLAG 112 304 0
FLAG 400 160 Vs
IOPIN 400 160 Out
FLAG 80 192 ao
IOPIN 80 192 In
SYMBOL OpAmps\\LTC6090 224 160 R0
WINDOW 0 -31 0 Left 2
SYMATTR InstName U1
SYMBOL res 352 -16 R0
SYMATTR InstName R2
SYMATTR Value 20k
SYMBOL res -48 48 R270
WINDOW 0 32 56 VTop 2
WINDOW 3 0 56 VBottom 2
SYMATTR InstName R3
SYMATTR Value 10k
SYMBOL voltage 192 224 R0
WINDOW 123 0 0 Left 0
WINDOW 39 0 0 Left 0
WINDOW 0 39 53 Left 2
WINDOW 3 30 80 Left 2
SYMATTR InstName V1
SYMATTR Value -32
SYMBOL voltage 192 96 R180
WINDOW 0 31 88 Left 2
WINDOW 3 31 34 Left 2
WINDOW 123 0 0 Left 0
WINDOW 39 0 0 Left 0
SYMATTR InstName V2
SYMATTR Value 32
SYMBOL voltage 112 208 R0
WINDOW 3 -344 135 Left 2
WINDOW 123 -103 57 Left 2
WINDOW 39 0 0 Left 0
WINDOW 0 -64 33 Left 2
SYMATTR Value PULSE(-10 10 0 4096u 0 0 4096u)
SYMATTR Value2 AC 10
SYMATTR InstName ao
TEXT -104 152 Left 2 !.tran 16384u
