Version 4
SHEET 1 880 680
WIRE 368 -48 64 -48
WIRE 368 -16 368 -48
WIRE 368 -16 320 -16
WIRE 416 -16 368 -16
WIRE 320 0 320 -16
WIRE 416 0 416 -16
WIRE -32 32 -48 32
WIRE 64 32 64 -48
WIRE 64 32 48 32
WIRE -48 80 -48 32
WIRE 320 96 320 64
WIRE 368 96 320 96
WIRE 416 96 416 80
WIRE 416 96 368 96
WIRE 64 128 64 32
WIRE 160 128 64 128
WIRE 368 160 368 96
WIRE 368 160 320 160
WIRE 400 160 368 160
WIRE 48 192 16 192
WIRE 160 192 48 192
WIRE 48 224 48 192
FLAG -48 80 0
FLAG 192 0 0
FLAG 192 320 0
FLAG 224 240 0
FLAG 48 304 0
FLAG 400 160 Vs
IOPIN 400 160 Out
FLAG 16 192 ao
IOPIN 16 192 In
SYMBOL OpAmps\\LTC6090 224 160 R0
WINDOW 0 -31 0 Left 2
SYMATTR InstName U1
SYMBOL res 400 -16 R0
SYMATTR InstName R2
SYMATTR Value 20k
SYMBOL cap 304 0 R0
SYMATTR InstName C1
SYMATTR Value 40p
SYMBOL res -48 48 R270
WINDOW 0 32 56 VTop 2
WINDOW 3 0 56 VBottom 2
SYMATTR InstName R3
SYMATTR Value 10k
SYMBOL voltage 192 224 R0
WINDOW 123 0 0 Left 0
WINDOW 39 0 0 Left 0
WINDOW 0 39 53 Left 2
WINDOW 3 30 80 Left 2
SYMATTR InstName V1
SYMATTR Value -32
SYMBOL voltage 192 96 R180
WINDOW 0 31 88 Left 2
WINDOW 3 31 34 Left 2
WINDOW 123 0 0 Left 0
WINDOW 39 0 0 Left 0
SYMATTR InstName V2
SYMATTR Value 32
SYMBOL voltage 48 208 R0
WINDOW 3 -232 146 Left 2
WINDOW 123 -103 57 Left 2
WINDOW 39 0 0 Left 0
WINDOW 0 -64 33 Left 2
SYMATTR Value PULSE(-10 10 0 4096u 4096u 0 8192u 512)
SYMATTR Value2 AC 10
SYMATTR InstName ao
TEXT -168 136 Left 2 !.tran 16384u
